# generated using pymatgen
data_Rb3Tm2Cu4Br13
_symmetry_space_group_name_H-M   'P 1'
_cell_length_a   11.01480007
_cell_length_b   11.01480007
_cell_length_c   11.01480007
_cell_angle_alpha   90.00000000
_cell_angle_beta   90.00000000
_cell_angle_gamma   90.00000000
_symmetry_Int_Tables_number   1
_chemical_formula_structural   Rb3Tm2Cu4Br13
_chemical_formula_sum   'Rb6 Tm4 Cu8 Br26'
_cell_volume   1336.37965766
_cell_formula_units_Z   2
loop_
 _symmetry_equiv_pos_site_id
 _symmetry_equiv_pos_as_xyz
  1  'x, y, z'
loop_
 _atom_site_type_symbol
 _atom_site_label
 _atom_site_symmetry_multiplicity
 _atom_site_fract_x
 _atom_site_fract_y
 _atom_site_fract_z
 _atom_site_occupancy
  Tm  Tm0  1  0.50000000  0.50000000  0.00000000  1
  Tm  Tm1  1  0.00000000  0.00000000  0.00000000  1
  Tm  Tm2  1  0.00000000  0.50000000  0.50000000  1
  Tm  Tm3  1  0.50000000  0.00000000  0.50000000  1
  Rb  Rb4  1  0.25000000  0.25000000  0.75000000  1
  Rb  Rb5  1  0.75000000  0.75000000  0.25000000  1
  Rb  Rb6  1  0.75000000  0.25000000  0.25000000  1
  Rb  Rb7  1  0.25000000  0.75000000  0.75000000  1
  Rb  Rb8  1  0.25000000  0.75000000  0.25000000  1
  Rb  Rb9  1  0.75000000  0.25000000  0.75000000  1
  Br  Br10  1  0.48579001  0.25154001  0.97408998  1
  Br  Br11  1  0.51420999  0.74846000  0.02591002  1
  Br  Br12  1  0.01420999  0.24845999  0.97408998  1
  Br  Br13  1  0.98579001  0.75154000  0.02591002  1
  Br  Br14  1  0.01420999  0.25154001  0.52591002  1
  Br  Br15  1  0.98579001  0.74846000  0.47408998  1
  Br  Br16  1  0.48579001  0.24845999  0.52591002  1
  Br  Br17  1  0.51420999  0.75154000  0.47408998  1
  Br  Br18  1  0.97408998  0.48579001  0.25154001  1
  Br  Br19  1  0.02591002  0.51420999  0.74846000  1
  Br  Br20  1  0.97408998  0.01420999  0.24845999  1
  Br  Br21  1  0.02591002  0.98579001  0.75154000  1
  Br  Br22  1  0.52591002  0.01420999  0.25154001  1
  Br  Br23  1  0.47408998  0.98579001  0.74846000  1
  Br  Br24  1  0.52591002  0.48579001  0.24845999  1
  Br  Br25  1  0.47408998  0.51420999  0.75154000  1
  Br  Br26  1  0.25154001  0.97408998  0.48579001  1
  Br  Br27  1  0.74846000  0.02591002  0.51420999  1
  Br  Br28  1  0.24845999  0.97408998  0.01420999  1
  Br  Br29  1  0.75154000  0.02591002  0.98579001  1
  Br  Br30  1  0.25154001  0.52591002  0.01420999  1
  Br  Br31  1  0.74846000  0.47408998  0.98579001  1
  Br  Br32  1  0.24845999  0.52591002  0.48579001  1
  Br  Br33  1  0.75154000  0.47408998  0.51420999  1
  Br  Br34  1  0.25000000  0.25000000  0.25000000  1
  Br  Br35  1  0.75000000  0.75000000  0.75000000  1
  Cu  Cu36  1  0.37754001  0.37754001  0.37754001  1
  Cu  Cu37  1  0.62245999  0.62245999  0.62245999  1
  Cu  Cu38  1  0.37754001  0.37754001  0.37754001  1
  Cu  Cu39  1  0.62245999  0.62245999  0.62245999  1
  Cu  Cu40  1  0.37754001  0.37754001  0.37754001  1
  Cu  Cu41  1  0.62245999  0.62245999  0.62245999  1
  Cu  Cu42  1  0.37754001  0.37754001  0.37754001  1
  Cu  Cu43  1  0.62245999  0.62245999  0.62245999  1
