CRYSTAL
# Primitive lattice vectors in Angstrom
PRIMVEC
 11.26000022890000 0.00000000000000 0.00000000000000
 -5.63000011440000 9.75144624480000 0.00000000000000
 0.00000000000000 0.00000000000000 5.96000003810000
# Cartesian coordinates in Angstrom.
PRIMCOORD
 61 1
Ag     0.00000008024952     4.29356173526607     2.23500001428750
Ag     5.63000011588549     5.45788429012639     3.72500002381250
Ag     1.91166638829799     7.60466526868213     2.23500001428750
Ag     3.71833349537201     2.14678093711209     3.72500002381250
Ag    -1.91166643607500     7.60466526868213     2.23500001428750
Ag     7.54166652805500     2.14678093711209     3.72500002381250
Ag     5.63000011588549     5.45788429012639     3.72500002381250
Ag     3.73761629644526     4.34305021769252     2.23500001428750
Ag     0.00000008024952     4.29356173526607     2.23500001428750
Ag     1.89238367026724     5.40839577113201     3.72500002381250
Ag     3.71833349537201     2.14678093711209     3.72500002381250
Ag     3.73761629644526     4.34305021769252     2.23500001428750
Ag     1.91166638829799     7.60466526868213     2.23500001428750
Ag     1.89238367026723     5.40839577113201     3.72500002381250
Ag     7.54166652805500     2.14678093711209     3.72500002381250
Ag    -1.91166643607500     7.60466526868213     2.23500001428750
Ag     1.91166638829799     7.60466526868213     2.23500001428750
Ag    -1.91166643607500     7.60466526868213     2.23500001428750
Ag     3.71833349537201     2.14678093711209     3.72500002381250
Ag     7.54166652805500     2.14678093711209     3.72500002381250
Ag     0.00000008024952     4.29356173526607     2.23500001428750
Ag    -1.91166643607500     7.60466526868213     2.23500001428750
Ag     5.63000011588548     5.45788429012639     3.72500002381250
Ag     7.54166652805500     2.14678093711209     3.72500002381250
Ag     0.00000008024952     4.29356173526607     2.23500001428750
Ag     1.91166638829799     7.60466526868213     2.23500001428750
Ag     3.73761629644526     4.34305021769252     2.23500001428750
Ag     1.89238367026723     5.40839577113201     3.72500002381250
Ag     5.63000011588548     5.45788429012639     3.72500002381250
Ag     3.71833349537201     2.14678093711209     3.72500002381250
Ag     3.73761629644526     4.34305021769252     2.23500001428750
Ag     1.89238367026723     5.40839577113201     3.72500002381250
Ag     1.85630486076423     3.21521433313699     2.98000001905000
Ag     3.77369518242244     6.53623178814469     2.98000001905000
Ag     3.77369518242244     6.53623178814469     2.98000001905000
Ag     1.85630486076423     3.21521433313699     2.98000001905000
Ag     3.77369518242244     6.53623178814469     2.98000001905000
Ag     5.62999997653166     3.25048203121753     2.98000001905000
Ag     1.85630486076422     3.21521433313699     2.98000001905000
Ag     0.00000002536833     6.50096401855355     2.98000001905000
Ag     1.85630486076423     3.21521433313699     2.98000001905000
Ag     5.62999997653167     3.25048203121753     2.98000001905000
Ag     3.77369518242244     6.53623178814469     2.98000001905000
Ag     0.00000002536833     6.50096401855355     2.98000001905000
Ag     5.62999997653167     3.25048203121753     2.98000001905000
Ag     0.00000002536833     6.50096401855355     2.98000001905000
Ag     0.00000002536833     6.50096401855355     2.98000001905000
Ag     5.62999997653166     3.25048203121753     2.98000001905000
Ag     0.00000002536833     6.50096401855355     2.98000001905000
Ag     5.62999997653166     3.25048203121753     2.98000001905000
Ag     1.85630486076422     3.21521433313699     2.98000001905000
Ag     0.94584000517750     4.85654519523127     2.98000001905000
Ag     3.77369518242244     6.53623178814469     2.98000001905000
Ag     1.89702842130561     6.50405205129215     2.98000001905000
Ag     0.00000002536833     6.50096401855355     2.98000001905000
Ag     1.85630486076423     3.21521433313699     2.98000001905000
Ag     3.77369518242244     6.53623178814469     2.98000001905000
Ag     4.69917338853770     4.89490085453981     2.98000001905000
Ag     4.68416009337083     4.89490083016119     2.98000001905000
Ag     3.73297151115772     3.24739406998953     2.98000001905000
Ag     5.62999997653166     3.25048203121753     2.98000001905000